*HEADING
NAFEMS LE10 thick plate pressure (quarter, C3D20)
Target: syy(D) = -5.38 MPa at the inner top point on +x
** mesh 6 hoop x 4 radial x 2 thick, node D = 5
*NODE
1, 2000, 0, 0
2, 2000, 0, 150
3, 2000, 0, 300
4, 2000, 0, 450
5, 2000, 0, 600
6, 1982.8897, 130.52619, 0
7, 1982.8897, 130.52619, 300
8, 1982.8897, 130.52619, 600
9, 1931.8517, 258.81905, 0
10, 1931.8517, 258.81905, 150
11, 1931.8517, 258.81905, 300
12, 1931.8517, 258.81905, 450
13, 1931.8517, 258.81905, 600
14, 1847.7591, 382.68343, 0
15, 1847.7591, 382.68343, 300
16, 1847.7591, 382.68343, 600
17, 1732.0508, 500, 0
18, 1732.0508, 500, 150
19, 1732.0508, 500, 300
20, 1732.0508, 500, 450
** ... 329 like lines cut
*ELEMENT, TYPE=C3D20, ELSET=PLATE
1, 1, 75, 83, 9, 3, 77, 85, 11, 54, 80, 57, 6, 55, 81, 58, 7, 2, 76, 84, 10
2, 3, 77, 85, 11, 5, 79, 87, 13, 55, 81, 58, 7, 56, 82, 59, 8, 4, 78, 86, 12
3, 9, 83, 91, 17, 11, 85, 93, 19, 57, 88, 60, 14, 58, 89, 61, 15, 10, 84, 92, 18
4, 11, 85, 93, 19, 13, 87, 95, 21, 58, 89, 61, 15, 59, 90, 62, 16, 12, 86, 94, 20
5, 17, 91, 99, 25, 19, 93, 101, 27, 60, 96, 63, 22, 61, 97, 64, 23, 18, 92, 100, 26
6, 19, 93, 101, 27, 21, 95, 103, 29, 61, 97, 64, 23, 62, 98, 65, 24, 20, 94, 102, 28
7, 25, 99, 107, 33, 27, 101, 109, 35, 63, 104, 66, 30, 64, 105, 67, 31, 26, 100, 108, 34
8, 27, 101, 109, 35, 29, 103, 111, 37, 64, 105, 67, 31, 65, 106, 68, 32, 28, 102, 110, 36
9, 33, 107, 115, 41, 35, 109, 117, 43, 66, 112, 69, 38, 67, 113, 70, 39, 34, 108, 116, 42
10, 35, 109, 117, 43, 37, 111, 119, 45, 67, 113, 70, 39, 68, 114, 71, 40, 36, 110, 118, 44
11, 41, 115, 123, 49, 43, 117, 125, 51, 69, 120, 72, 46, 70, 121, 73, 47, 42, 116, 124, 50
12, 43, 117, 125, 51, 45, 119, 127, 53, 70, 121, 73, 47, 71, 122, 74, 48, 44, 118, 126, 52
13, 75, 149, 157, 83, 77, 151, 159, 85, 128, 154, 131, 80, 129, 155, 132, 81, 76, 150, 158, 84
14, 77, 151, 159, 85, 79, 153, 161, 87, 129, 155, 132, 81, 130, 156, 133, 82, 78, 152, 160, 86
15, 83, 157, 165, 91, 85, 159, 167, 93, 131, 162, 134, 88, 132, 163, 135, 89, 84, 158, 166, 92
16, 85, 159, 167, 93, 87, 161, 169, 95, 132, 163, 135, 89, 133, 164, 136, 90, 86, 160, 168, 94
17, 91, 165, 173, 99, 93, 167, 175, 101, 134, 170, 137, 96, 135, 171, 138, 97, 92, 166, 174, 100
18, 93, 167, 175, 101, 95, 169, 177, 103, 135, 171, 138, 97, 136, 172, 139, 98, 94, 168, 176, 102
19, 99, 173, 181, 107, 101, 175, 183, 109, 137, 178, 140, 104, 138, 179, 141, 105, 100, 174, 182, 108
20, 101, 175, 183, 109, 103, 177, 185, 111, 138, 179, 141, 105, 139, 180, 142, 106, 102, 176, 184, 110
** ... 28 like lines cut
*ELSET, ELSET=TOP
2, 4, 6, 8, 10, 12, 14, 16, 18, 20, 22, 24
26, 28, 30, 32, 34, 36, 38, 40, 42, 44, 46, 48
*NSET, NSET=D
5
*NSET, NSET=YS
1, 2, 3, 4, 5, 54, 55, 56, 75, 76, 77, 78
79, 128, 129, 130, 149, 150, 151, 152, 153, 202, 203, 204
223, 224, 225, 226, 227, 276, 277, 278, 297, 298, 299, 300
301
*NSET, NSET=XS
49, 50, 51, 52, 53, 72, 73, 74, 123, 124, 125, 126
127, 146, 147, 148, 197, 198, 199, 200, 201, 220, 221, 222
271, 272, 273, 274, 275, 294, 295, 296, 345, 346, 347, 348
349
*NSET, NSET=OUTER
297, 298, 299, 300, 301, 302, 303, 304, 305, 306, 307, 308
309, 310, 311, 312, 313, 314, 315, 316, 317, 318, 319, 320
321, 322, 323, 324, 325, 326, 327, 328, 329, 330, 331, 332
333, 334, 335, 336, 337, 338, 339, 340, 341, 342, 343, 344
345, 346, 347, 348, 349
*NSET, NSET=OMID
299, 303, 307, 311, 315, 319, 323, 327, 331, 335, 339, 343
347
*MATERIAL, NAME=STEEL
*ELASTIC
210000, 0.3
*SOLID SECTION, ELSET=PLATE, MATERIAL=STEEL
*BOUNDARY
YS, 2, 2
XS, 1, 1
OUTER, 1, 2
OMID, 3, 3
*STEP
*STATIC
*DLOAD
TOP, P2, -1
*NODE FILE
U
*EL FILE
S
*END STEP
