*HEADING
NAFEMS LE10 thick plate pressure (quarter, C3D20)
Target: syy(D) = -5.38 MPa at the inner top point on +x
** mesh 12 hoop x 8 radial x 4 thick, node D = 9
*NODE
1, 2000, 0, 0
2, 2000, 0, 75
3, 2000, 0, 150
4, 2000, 0, 225
5, 2000, 0, 300
6, 2000, 0, 375
7, 2000, 0, 450
8, 2000, 0, 525
9, 2000, 0, 600
10, 1995.7178, 65.403129, 0
11, 1995.7178, 65.403129, 150
12, 1995.7178, 65.403129, 300
13, 1995.7178, 65.403129, 450
14, 1995.7178, 65.403129, 600
15, 1982.8897, 130.52619, 0
16, 1982.8897, 130.52619, 75
17, 1982.8897, 130.52619, 150
18, 1982.8897, 130.52619, 225
19, 1982.8897, 130.52619, 300
20, 1982.8897, 130.52619, 375
** ... 2093 like lines cut
*ELEMENT, TYPE=C3D20, ELSET=PLATE
1, 1, 243, 257, 15, 3, 245, 259, 17, 178, 252, 183, 10, 179, 253, 184, 11, 2, 244, 258, 16
2, 3, 245, 259, 17, 5, 247, 261, 19, 179, 253, 184, 11, 180, 254, 185, 12, 4, 246, 260, 18
3, 5, 247, 261, 19, 7, 249, 263, 21, 180, 254, 185, 12, 181, 255, 186, 13, 6, 248, 262, 20
4, 7, 249, 263, 21, 9, 251, 265, 23, 181, 255, 186, 13, 182, 256, 187, 14, 8, 250, 264, 22
5, 15, 257, 271, 29, 17, 259, 273, 31, 183, 266, 188, 24, 184, 267, 189, 25, 16, 258, 272, 30
6, 17, 259, 273, 31, 19, 261, 275, 33, 184, 267, 189, 25, 185, 268, 190, 26, 18, 260, 274, 32
7, 19, 261, 275, 33, 21, 263, 277, 35, 185, 268, 190, 26, 186, 269, 191, 27, 20, 262, 276, 34
8, 21, 263, 277, 35, 23, 265, 279, 37, 186, 269, 191, 27, 187, 270, 192, 28, 22, 264, 278, 36
9, 29, 271, 285, 43, 31, 273, 287, 45, 188, 280, 193, 38, 189, 281, 194, 39, 30, 272, 286, 44
10, 31, 273, 287, 45, 33, 275, 289, 47, 189, 281, 194, 39, 190, 282, 195, 40, 32, 274, 288, 46
11, 33, 275, 289, 47, 35, 277, 291, 49, 190, 282, 195, 40, 191, 283, 196, 41, 34, 276, 290, 48
12, 35, 277, 291, 49, 37, 279, 293, 51, 191, 283, 196, 41, 192, 284, 197, 42, 36, 278, 292, 50
13, 43, 285, 299, 57, 45, 287, 301, 59, 193, 294, 198, 52, 194, 295, 199, 53, 44, 286, 300, 58
14, 45, 287, 301, 59, 47, 289, 303, 61, 194, 295, 199, 53, 195, 296, 200, 54, 46, 288, 302, 60
15, 47, 289, 303, 61, 49, 291, 305, 63, 195, 296, 200, 54, 196, 297, 201, 55, 48, 290, 304, 62
16, 49, 291, 305, 63, 51, 293, 307, 65, 196, 297, 201, 55, 197, 298, 202, 56, 50, 292, 306, 64
17, 57, 299, 313, 71, 59, 301, 315, 73, 198, 308, 203, 66, 199, 309, 204, 67, 58, 300, 314, 72
18, 59, 301, 315, 73, 61, 303, 317, 75, 199, 309, 204, 67, 200, 310, 205, 68, 60, 302, 316, 74
19, 61, 303, 317, 75, 63, 305, 319, 77, 200, 310, 205, 68, 201, 311, 206, 69, 62, 304, 318, 76
20, 63, 305, 319, 77, 65, 307, 321, 79, 201, 311, 206, 69, 202, 312, 207, 70, 64, 306, 320, 78
** ... 364 like lines cut
*ELSET, ELSET=TOP
4, 8, 12, 16, 20, 24, 28, 32, 36, 40, 44, 48
52, 56, 60, 64, 68, 72, 76, 80, 84, 88, 92, 96
100, 104, 108, 112, 116, 120, 124, 128, 132, 136, 140, 144
148, 152, 156, 160, 164, 168, 172, 176, 180, 184, 188, 192
196, 200, 204, 208, 212, 216, 220, 224, 228, 232, 236, 240
244, 248, 252, 256, 260, 264, 268, 272, 276, 280, 284, 288
292, 296, 300, 304, 308, 312, 316, 320, 324, 328, 332, 336
340, 344, 348, 352, 356, 360, 364, 368, 372, 376, 380, 384
*NSET, NSET=D
9
*NSET, NSET=YS
1, 2, 3, 4, 5, 6, 7, 8, 9, 178, 179, 180
181, 182, 243, 244, 245, 246, 247, 248, 249, 250, 251, 420
421, 422, 423, 424, 485, 486, 487, 488, 489, 490, 491, 492
493, 662, 663, 664, 665, 666, 727, 728, 729, 730, 731, 732
733, 734, 735, 904, 905, 906, 907, 908, 969, 970, 971, 972
973, 974, 975, 976, 977, 1146, 1147, 1148, 1149, 1150, 1211, 1212
1213, 1214, 1215, 1216, 1217, 1218, 1219, 1388, 1389, 1390, 1391, 1392
1453, 1454, 1455, 1456, 1457, 1458, 1459, 1460, 1461, 1630, 1631, 1632
1633, 1634, 1695, 1696, 1697, 1698, 1699, 1700, 1701, 1702, 1703, 1872
1873, 1874, 1875, 1876, 1937, 1938, 1939, 1940, 1941, 1942, 1943, 1944
1945
*NSET, NSET=XS
169, 170, 171, 172, 173, 174, 175, 176, 177, 238, 239, 240
241, 242, 411, 412, 413, 414, 415, 416, 417, 418, 419, 480
481, 482, 483, 484, 653, 654, 655, 656, 657, 658, 659, 660
661, 722, 723, 724, 725, 726, 895, 896, 897, 898, 899, 900
901, 902, 903, 964, 965, 966, 967, 968, 1137, 1138, 1139, 1140
1141, 1142, 1143, 1144, 1145, 1206, 1207, 1208, 1209, 1210, 1379, 1380
1381, 1382, 1383, 1384, 1385, 1386, 1387, 1448, 1449, 1450, 1451, 1452
1621, 1622, 1623, 1624, 1625, 1626, 1627, 1628, 1629, 1690, 1691, 1692
1693, 1694, 1863, 1864, 1865, 1866, 1867, 1868, 1869, 1870, 1871, 1932
1933, 1934, 1935, 1936, 2105, 2106, 2107, 2108, 2109, 2110, 2111, 2112
2113
*NSET, NSET=OUTER
1937, 1938, 1939, 1940, 1941, 1942, 1943, 1944, 1945, 1946, 1947, 1948
1949, 1950, 1951, 1952, 1953, 1954, 1955, 1956, 1957, 1958, 1959, 1960
1961, 1962, 1963, 1964, 1965, 1966, 1967, 1968, 1969, 1970, 1971, 1972
1973, 1974, 1975, 1976, 1977, 1978, 1979, 1980, 1981, 1982, 1983, 1984
1985, 1986, 1987, 1988, 1989, 1990, 1991, 1992, 1993, 1994, 1995, 1996
1997, 1998, 1999, 2000, 2001, 2002, 2003, 2004, 2005, 2006, 2007, 2008
2009, 2010, 2011, 2012, 2013, 2014, 2015, 2016, 2017, 2018, 2019, 2020
2021, 2022, 2023, 2024, 2025, 2026, 2027, 2028, 2029, 2030, 2031, 2032
2033, 2034, 2035, 2036, 2037, 2038, 2039, 2040, 2041, 2042, 2043, 2044
2045, 2046, 2047, 2048, 2049, 2050, 2051, 2052, 2053, 2054, 2055, 2056
2057, 2058, 2059, 2060, 2061, 2062, 2063, 2064, 2065, 2066, 2067, 2068
2069, 2070, 2071, 2072, 2073, 2074, 2075, 2076, 2077, 2078, 2079, 2080
2081, 2082, 2083, 2084, 2085, 2086, 2087, 2088, 2089, 2090, 2091, 2092
2093, 2094, 2095, 2096, 2097, 2098, 2099, 2100, 2101, 2102, 2103, 2104
2105, 2106, 2107, 2108, 2109, 2110, 2111, 2112, 2113
*NSET, NSET=OMID
1941, 1948, 1955, 1962, 1969, 1976, 1983, 1990, 1997, 2004, 2011, 2018
2025, 2032, 2039, 2046, 2053, 2060, 2067, 2074, 2081, 2088, 2095, 2102
2109
*MATERIAL, NAME=STEEL
*ELASTIC
210000, 0.3
*SOLID SECTION, ELSET=PLATE, MATERIAL=STEEL
*BOUNDARY
YS, 2, 2
XS, 1, 1
OUTER, 1, 2
OMID, 3, 3
*STEP
*STATIC
*DLOAD
TOP, P2, 1
*NODE FILE
U
*EL FILE
S
*END STEP
