*HEADING
NAFEMS LE1 elliptic membrane (plane stress, quarter)
Target: syy(D) = 92.7 MPa at the inner point on +x
** mesh CPS8 8 radial x 24 hoop, node D = 1
*NODE
1, 2000, 0, 0
2, 1998.9292, 32.719083, 0
3, 1995.7178, 65.403129, 0
4, 1990.3695, 98.01714, 0
5, 1982.8897, 130.52619, 0
6, 1973.2867, 162.89547, 0
7, 1961.5706, 195.09032, 0
8, 1947.754, 227.07626, 0
9, 1931.8517, 258.81905, 0
10, 1913.8807, 290.28468, 0
11, 1893.8603, 321.43947, 0
12, 1871.8119, 352.25005, 0
13, 1847.7591, 382.68343, 0
14, 1821.7276, 412.70703, 0
15, 1793.7455, 442.28869, 0
16, 1763.8425, 471.39674, 0
17, 1732.0508, 500, 0
18, 1698.4044, 528.06785, 0
19, 1662.9392, 555.57023, 0
20, 1625.6934, 582.4777, 0
** ... 621 like lines cut
*ELEMENT, TYPE=CPS8, ELSET=MEM
1, 1, 75, 77, 3, 50, 76, 51, 2
2, 3, 77, 79, 5, 51, 78, 52, 4
3, 5, 79, 81, 7, 52, 80, 53, 6
4, 7, 81, 83, 9, 53, 82, 54, 8
5, 9, 83, 85, 11, 54, 84, 55, 10
6, 11, 85, 87, 13, 55, 86, 56, 12
7, 13, 87, 89, 15, 56, 88, 57, 14
8, 15, 89, 91, 17, 57, 90, 58, 16
9, 17, 91, 93, 19, 58, 92, 59, 18
10, 19, 93, 95, 21, 59, 94, 60, 20
11, 21, 95, 97, 23, 60, 96, 61, 22
12, 23, 97, 99, 25, 61, 98, 62, 24
13, 25, 99, 101, 27, 62, 100, 63, 26
14, 27, 101, 103, 29, 63, 102, 64, 28
15, 29, 103, 105, 31, 64, 104, 65, 30
16, 31, 105, 107, 33, 65, 106, 66, 32
17, 33, 107, 109, 35, 66, 108, 67, 34
18, 35, 109, 111, 37, 67, 110, 68, 36
19, 37, 111, 113, 39, 68, 112, 69, 38
20, 39, 113, 115, 41, 69, 114, 70, 40
** ... 172 like lines cut
*ELSET, ELSET=OUTER
169, 170, 171, 172, 173, 174, 175, 176, 177, 178, 179, 180
181, 182, 183, 184, 185, 186, 187, 188, 189, 190, 191, 192
*NSET, NSET=D
1
*NSET, NSET=YS
1, 50, 75, 124, 149, 198, 223, 272, 297, 346, 371, 420
445, 494, 519, 568, 593
*NSET, NSET=XS
49, 74, 123, 148, 197, 222, 271, 296, 345, 370, 419, 444
493, 518, 567, 592, 641
*MATERIAL, NAME=STEEL
*ELASTIC
210000, 0.3
*SOLID SECTION, ELSET=MEM, MATERIAL=STEEL
100
*BOUNDARY
YS, 2, 2
XS, 1, 1
*STEP
*STATIC
*DLOAD
OUTER, P2, -10
*NODE FILE
U
*EL FILE
S
*END STEP
