*HEADING
NAFEMS LE1 elliptic membrane, quadratic triangles CPS6
Target: syy(D) = 92.7 MPa
** mesh 8 x 24 quads x 2 CPS6, node D = 1
*NODE
1, 2000, 0, 0
2, 1998.9292, 32.719083, 0
3, 1995.7178, 65.403129, 0
4, 1990.3695, 98.01714, 0
5, 1982.8897, 130.52619, 0
6, 1973.2867, 162.89547, 0
7, 1961.5706, 195.09032, 0
8, 1947.754, 227.07626, 0
9, 1931.8517, 258.81905, 0
10, 1913.8807, 290.28468, 0
11, 1893.8603, 321.43947, 0
12, 1871.8119, 352.25005, 0
13, 1847.7591, 382.68343, 0
14, 1821.7276, 412.70703, 0
15, 1793.7455, 442.28869, 0
16, 1763.8425, 471.39674, 0
17, 1732.0508, 500, 0
18, 1698.4044, 528.06785, 0
19, 1662.9392, 555.57023, 0
20, 1625.6934, 582.4777, 0
** ... 813 like lines cut
*ELEMENT, TYPE=CPS6, ELSET=MEM
1, 1, 99, 101, 50, 100, 51
2, 1, 101, 3, 51, 52, 2
3, 3, 101, 103, 52, 102, 53
4, 3, 103, 5, 53, 54, 4
5, 5, 103, 105, 54, 104, 55
6, 5, 105, 7, 55, 56, 6
7, 7, 105, 107, 56, 106, 57
8, 7, 107, 9, 57, 58, 8
9, 9, 107, 109, 58, 108, 59
10, 9, 109, 11, 59, 60, 10
11, 11, 109, 111, 60, 110, 61
12, 11, 111, 13, 61, 62, 12
13, 13, 111, 113, 62, 112, 63
14, 13, 113, 15, 63, 64, 14
15, 15, 113, 115, 64, 114, 65
16, 15, 115, 17, 65, 66, 16
17, 17, 115, 117, 66, 116, 67
18, 17, 117, 19, 67, 68, 18
19, 19, 117, 119, 68, 118, 69
20, 19, 119, 21, 69, 70, 20
** ... 364 like lines cut
*ELSET, ELSET=OUTER
337, 339, 341, 343, 345, 347, 349, 351, 353, 355, 357, 359
361, 363, 365, 367, 369, 371, 373, 375, 377, 379, 381, 383
*NSET, NSET=D
1
*NSET, NSET=YS
1, 50, 99, 148, 197, 246, 295, 344, 393, 442, 491, 540
589, 638, 687, 736, 785
*NSET, NSET=XS
49, 98, 147, 196, 245, 294, 343, 392, 441, 490, 539, 588
637, 686, 735, 784, 833
*MATERIAL, NAME=STEEL
*ELASTIC
210000, 0.3
*SOLID SECTION, ELSET=MEM, MATERIAL=STEEL
100
*BOUNDARY
YS, 2, 2
XS, 1, 1
*STEP
*STATIC
*DLOAD
OUTER, P2, -10
*NODE FILE
U
*EL FILE
S
*END STEP
