*HEADING
NAFEMS LE6 skew plate, normal pressure, S8
Target: max principal stress at E (lower surface) = 0.802 MPa
** S8 24x24, centre node E = 913
*NODE
1, 0, 0, 0
2, 0.018042196, 0.010416667, 0
3, 0.036084392, 0.020833333, 0
4, 0.054126588, 0.03125, 0
5, 0.072168784, 0.041666667, 0
6, 0.09021098, 0.052083333, 0
7, 0.10825318, 0.0625, 0
8, 0.12629537, 0.072916667, 0
9, 0.14433757, 0.083333333, 0
10, 0.16237976, 0.09375, 0
11, 0.18042196, 0.10416667, 0
12, 0.19846416, 0.11458333, 0
13, 0.21650635, 0.125, 0
14, 0.23454855, 0.13541667, 0
15, 0.25259074, 0.14583333, 0
16, 0.27063294, 0.15625, 0
17, 0.28867513, 0.16666667, 0
18, 0.30671733, 0.17708333, 0
19, 0.32475953, 0.1875, 0
20, 0.34280172, 0.19791667, 0
** ... 1805 like lines cut
*ELEMENT, TYPE=S8, ELSET=PLATE
1, 1, 75, 77, 3, 50, 76, 51, 2
2, 3, 77, 79, 5, 51, 78, 52, 4
3, 5, 79, 81, 7, 52, 80, 53, 6
4, 7, 81, 83, 9, 53, 82, 54, 8
5, 9, 83, 85, 11, 54, 84, 55, 10
6, 11, 85, 87, 13, 55, 86, 56, 12
7, 13, 87, 89, 15, 56, 88, 57, 14
8, 15, 89, 91, 17, 57, 90, 58, 16
9, 17, 91, 93, 19, 58, 92, 59, 18
10, 19, 93, 95, 21, 59, 94, 60, 20
11, 21, 95, 97, 23, 60, 96, 61, 22
12, 23, 97, 99, 25, 61, 98, 62, 24
13, 25, 99, 101, 27, 62, 100, 63, 26
14, 27, 101, 103, 29, 63, 102, 64, 28
15, 29, 103, 105, 31, 64, 104, 65, 30
16, 31, 105, 107, 33, 65, 106, 66, 32
17, 33, 107, 109, 35, 66, 108, 67, 34
18, 35, 109, 111, 37, 67, 110, 68, 36
19, 37, 111, 113, 39, 68, 112, 69, 38
20, 39, 113, 115, 41, 69, 114, 70, 40
** ... 556 like lines cut
*NSET, NSET=E
913
*NSET, NSET=EDGE
1, 49, 50, 74, 75, 123, 124, 148, 149, 197, 198, 222
223, 271, 272, 296, 297, 345, 346, 370, 371, 419, 420, 444
445, 493, 494, 518, 519, 567, 568, 592, 593, 641, 642, 666
667, 715, 716, 740, 741, 789, 790, 814, 815, 863, 864, 888
889, 937, 938, 962, 963, 1011, 1012, 1036, 1037, 1085, 1086, 1110
1111, 1159, 1160, 1184, 1185, 1233, 1234, 1258, 1259, 1307, 1308, 1332
1333, 1381, 1382, 1406, 1407, 1455, 1456, 1480, 1481, 1529, 1530, 1554
1555, 1603, 1604, 1628, 1629, 1677, 1678, 1702, 1703, 1751, 1752, 1776
1777, 1825, 2, 1778, 3, 1779, 4, 1780, 5, 1781, 6, 1782
7, 1783, 8, 1784, 9, 1785, 10, 1786, 11, 1787, 12, 1788
13, 1789, 14, 1790, 15, 1791, 16, 1792, 17, 1793, 18, 1794
19, 1795, 20, 1796, 21, 1797, 22, 1798, 23, 1799, 24, 1800
25, 1801, 26, 1802, 27, 1803, 28, 1804, 29, 1805, 30, 1806
31, 1807, 32, 1808, 33, 1809, 34, 1810, 35, 1811, 36, 1812
37, 1813, 38, 1814, 39, 1815, 40, 1816, 41, 1817, 42, 1818
43, 1819, 44, 1820, 45, 1821, 46, 1822, 47, 1823, 48, 1824
*NSET, NSET=A
1
*NSET, NSET=B
1777
*MATERIAL, NAME=STEEL
*ELASTIC
2.1e11, 0.3
*SHELL SECTION, ELSET=PLATE, MATERIAL=STEEL
0.01
*BOUNDARY
EDGE, 3, 3
A, 1, 2
B, 2, 2
*STEP
*STATIC
*DLOAD
PLATE, P, -700
*NODE FILE
U
*EL FILE
S
*END STEP
