*HEADING
NAFEMS thermal plate (T4 / Cameron, Casey & Simpson)
Target: T(0.6 m, 0.2 m) = 18.3 C
** mesh C3D8 24 x 40 x 1, thickness 0.02 m, probe nodes [1985, 1986]
*NODE
1, 0, 0, 0
2, 0, 0, 0.02
3, 0, 0.025, 0
4, 0, 0.025, 0.02
5, 0, 0.05, 0
6, 0, 0.05, 0.02
7, 0, 0.075, 0
8, 0, 0.075, 0.02
9, 0, 0.1, 0
10, 0, 0.1, 0.02
11, 0, 0.125, 0
12, 0, 0.125, 0.02
13, 0, 0.15, 0
14, 0, 0.15, 0.02
15, 0, 0.175, 0
16, 0, 0.175, 0.02
17, 0, 0.2, 0
18, 0, 0.2, 0.02
19, 0, 0.225, 0
20, 0, 0.225, 0.02
** ... 2030 like lines cut
*ELEMENT, TYPE=C3D8, ELSET=PLATE
1, 1, 83, 85, 3, 2, 84, 86, 4
2, 3, 85, 87, 5, 4, 86, 88, 6
3, 5, 87, 89, 7, 6, 88, 90, 8
4, 7, 89, 91, 9, 8, 90, 92, 10
5, 9, 91, 93, 11, 10, 92, 94, 12
6, 11, 93, 95, 13, 12, 94, 96, 14
7, 13, 95, 97, 15, 14, 96, 98, 16
8, 15, 97, 99, 17, 16, 98, 100, 18
9, 17, 99, 101, 19, 18, 100, 102, 20
10, 19, 101, 103, 21, 20, 102, 104, 22
11, 21, 103, 105, 23, 22, 104, 106, 24
12, 23, 105, 107, 25, 24, 106, 108, 26
13, 25, 107, 109, 27, 26, 108, 110, 28
14, 27, 109, 111, 29, 28, 110, 112, 30
15, 29, 111, 113, 31, 30, 112, 114, 32
16, 31, 113, 115, 33, 32, 114, 116, 34
17, 33, 115, 117, 35, 34, 116, 118, 36
18, 35, 117, 119, 37, 36, 118, 120, 38
19, 37, 119, 121, 39, 38, 120, 122, 40
20, 39, 121, 123, 41, 40, 122, 124, 42
** ... 940 like lines cut
*ELSET, ELSET=RIGHT
921, 922, 923, 924, 925, 926, 927, 928, 929, 930, 931, 932
933, 934, 935, 936, 937, 938, 939, 940, 941, 942, 943, 944
945, 946, 947, 948, 949, 950, 951, 952, 953, 954, 955, 956
957, 958, 959, 960
*ELSET, ELSET=TOP
40, 80, 120, 160, 200, 240, 280, 320, 360, 400, 440, 480
520, 560, 600, 640, 680, 720, 760, 800, 840, 880, 920, 960
*NSET, NSET=BOTTOM
1, 83, 165, 247, 329, 411, 493, 575, 657, 739, 821, 903
985, 1067, 1149, 1231, 1313, 1395, 1477, 1559, 1641, 1723, 1805, 1887
1969, 2, 84, 166, 248, 330, 412, 494, 576, 658, 740, 822
904, 986, 1068, 1150, 1232, 1314, 1396, 1478, 1560, 1642, 1724, 1806
1888, 1970
*NSET, NSET=PROBE
1985, 1986
*MATERIAL, NAME=MAT
*ELASTIC
1, 0.3
*CONDUCTIVITY
52
*SOLID SECTION, ELSET=PLATE, MATERIAL=MAT
*BOUNDARY
BOTTOM, 11, 11, 100
*STEP
*HEAT TRANSFER, STEADY STATE
*FILM
RIGHT, F4, 0, 750
TOP, F5, 0, 750
*NODE FILE
NT
*END STEP
