** Generated by Mecway 33
*NODE
1,0.0375,0.005,0
2,0.05284746489505,0.01,0.025
3,0.057,0.01,0.025
4,0.0375,0.01,0
5,0.0375,0.005,0.05
6,0.0575806504495,0.01,0.02254032522475
7,0.05430545635174,0.01,0.01680545635174
8,0.0375,0.01,0.05
9,0.05861091270347,0.01,0.02111091270347
10,0.057,0.0075,0.025
11,0.05861091270347,0.0075,0.02111091270347
12,0.05284746489505,0.005,0.025
13,0.08125,0.01,0.0125
14,0.08141745418902,0.01,0.025
15,0.08125,0.015,0
16,0.08125,0.015,0.0125
17,0.057,0.005,0.025
18,0.0575806504495,0.005,0.02254032522475
19,0.05430545635174,0.005,0.01680545635174
20,0.05861091270347,0.005,0.02111091270347
** ... 703 like lines cut
*ELEMENT,TYPE=C3D20
1,221,33,39,229,20,30,23,9,233,36,236,225,344,27,343,
11,19,29,21,7
2,478,439,494,500,81,77,79,83,491,493,504,499,412,407,413,
409,80,76,78,82
3,33,256,264,39,30,277,181,23,249,260,252,36,283,32,234,
27,29,247,165,21
4,256,274,49,264,258,55,60,266,268,42,271,260,269,44,272,
261,257,275,51,265
5,428,429,538,530,85,87,89,91,432,533,584,505,414,415,416,
417,84,86,88,90
6,431,428,530,583,93,85,91,95,435,505,65,559,418,417,419,
420,92,84,90,94
7,527,535,470,545,594,392,369,378,531,542,465,539,544,381,375,
384,581,387,368,410
8,54,393,404,399,98,114,141,149,386,395,388,56,301,304,307,
310,97,111,139,147
9,201,107,116,126,131,109,118,136,99,112,103,121,101,113,104,
123,202,108,117,128
10,183,201,126,191,185,131,136,193,195,121,198,187,196,123,199,
188,184,202,128,192
** ... 134 like lines cut
*ELSET,ELSET=DEFAULT
1
2
3
4
5
6
7
8
9
10
11
12
13
14
15
16
17
18
19
20
** ... 57 like lines cut
*SURFACE,NAME=PRETENSIONSECTION
77,S1
*SURFACE,NAME=CONTACT_FACES
22,S5
20,S5
1,S5
23,S5
21,S5
14,S4
3,S5
25,S5
17,S5
33,S4
19,S6
4,S5
18,S5
32,S4
13,S6
35,S5
10,S5
24,S4
11,S5
9,S5
** ... 12 like lines cut
*SURFACE,NAME=CONTACT_FACES(2)
45,S3
60,S6
47,S3
46,S3
7,S6
49,S4
42,S3
54,S3
38,S6
55,S4
40,S3
53,S3
50,S6
39,S3
61,S3
57,S3
37,S3
59,S3
56,S3
58,S3
** ... 12 like lines cut
*SURFACE,NAME=CONTACT_FACES(4)
55,S6
40,S5
39,S5
49,S6
61,S5
42,S5
59,S5
37,S5
60,S4
47,S5
58,S5
50,S4
45,S5
7,S4
56,S5
57,S5
38,S4
46,S5
53,S5
54,S5
*SURFACE,NAME=CONTACT_FACES(3)
62,S3
64,S3
63,S3
2,S3
*SURFACE,NAME=BONDED_CONTACT_FACES(2)
41,S3
6,S3
43,S3
5,S3
*SURFACE,NAME=BONDED_CONTACT_FACES
9,S3
24,S6
11,S3
10,S3
32,S6
13,S4
35,S3
18,S3
33,S6
19,S4
4,S3
17,S3
14,S6
3,S3
25,S3
21,S3
1,S3
23,S3
20,S3
22,S3
*MATERIAL,NAME=MATERIAL
*ELASTIC,TYPE=ISOTROPIC
200000000000,0.3
*SOLID SECTION,ELSET=DEFAULT,MATERIAL=MATERIAL
*BOUNDARY
617,1,,0
617,2,,0
617,3,,0
623,1,,0
623,2,,0
623,3,,0
629,1,,0
629,2,,0
629,3,,0
635,1,,0
635,2,,0
635,3,,0
641,1,,0
641,2,,0
641,3,,0
647,1,,0
647,2,,0
647,3,,0
653,1,,0
653,2,,0
** ... 49 like lines cut
*PRE-TENSION SECTION,SURFACE=PRETENSIONSECTION,NODE=723
0.000000000000E+000,1.000000000000E+000,0.000000000000E+000
*AMPLITUDE,NAME=Ax_110_1
0,0
1,-416.6666666667
*AMPLITUDE,NAME=Ax_137_2
0,0
1,-416.6666666667
*AMPLITUDE,NAME=Ax_146_3
0,0
1,-416.6666666667
*AMPLITUDE,NAME=Ax_153_4
0,0
1,-416.6666666667
*AMPLITUDE,NAME=Ax_303_5
0,0
1,1666.666666667
*AMPLITUDE,NAME=Ax_306_6
0,0
1,833.3333333333
*AMPLITUDE,NAME=Ax_309_7
0,0
1,1666.666666667
*AMPLITUDE,NAME=Ax_312_8
0,0
1,833.3333333333
*AMPLITUDE,NAME=Ax_281_9
0,0
1,-416.6666666667
*AMPLITUDE,NAME=Ax_288_A
0,0
1,-416.6666666667
*AMPLITUDE,NAME=Ax_327_B
0,0
1,833.3333333333
*AMPLITUDE,NAME=Ax_330_C
0,0
1,1666.666666667
*AMPLITUDE,NAME=Ax_333_D
0,0
1,833.3333333333
*AMPLITUDE,NAME=Ax_294_E
0,0
1,-208.3333333333
*AMPLITUDE,NAME=Ax_300_F
0,0
1,-208.3333333333
*AMPLITUDE,NAME=Ax_336_10
0,0
1,833.3333333333
*AMPLITUDE,NAME=Ax_339_11
0,0
1,833.3333333333
*AMPLITUDE,NAME=Ax_342_12
0,0
1,833.3333333333
*AMPLITUDE,NAME=Ax_159_13
0,0
1,-208.3333333333
*AMPLITUDE,NAME=Ax_197_14
0,0
1,-208.3333333333
*AMPLITUDE,NAME=Ax_316_15
0,0
1,833.3333333333
*AMPLITUDE,NAME=Ax_319_16
0,0
1,833.3333333333
*AMPLITUDE,NAME=Ax_324_17
0,0
1,833.3333333333
*CONTACT PAIR,INTERACTION=SI_18,TYPE=SURFACE TO SURFACE
CONTACT_FACES(2),CONTACT_FACES
*SURFACE INTERACTION,NAME=SI_18
*SURFACE BEHAVIOR,PRESSURE-OVERCLOSURE=LINEAR
2E+14,1
*FRICTION
0.5,2E+14
*CONTACT PAIR,INTERACTION=SI_19,TYPE=SURFACE TO SURFACE
CONTACT_FACES(3),CONTACT_FACES(4)
*SURFACE INTERACTION,NAME=SI_19
*SURFACE BEHAVIOR,PRESSURE-OVERCLOSURE=LINEAR
2E+14,1
*TIE,NAME=T_1A,POSITION TOLERANCE=0
BONDED_CONTACT_FACES(2),BONDED_CONTACT_FACES
*STEP,NLGEOM=YES,INC=100,AMPLITUDE=STEP
*STATIC,DIRECT
0.1,1,0,0
*CLOAD
723,1,30000
*CLOAD,AMPLITUDE=Ax_110_1
110,1,1
*CLOAD,AMPLITUDE=Ax_137_2
137,1,1
*CLOAD,AMPLITUDE=Ax_146_3
146,1,1
*CLOAD,AMPLITUDE=Ax_153_4
153,1,1
*CLOAD,AMPLITUDE=Ax_303_5
303,1,1
*CLOAD,AMPLITUDE=Ax_306_6
306,1,1
*CLOAD,AMPLITUDE=Ax_309_7
309,1,1
*CLOAD,AMPLITUDE=Ax_312_8
312,1,1
*CLOAD,AMPLITUDE=Ax_281_9
281,1,1
*CLOAD,AMPLITUDE=Ax_288_A
288,1,1
*CLOAD,AMPLITUDE=Ax_327_B
327,1,1
*CLOAD,AMPLITUDE=Ax_330_C
330,1,1
*CLOAD,AMPLITUDE=Ax_333_D
333,1,1
*CLOAD,AMPLITUDE=Ax_294_E
294,1,1
*CLOAD,AMPLITUDE=Ax_300_F
300,1,1
*CLOAD,AMPLITUDE=Ax_336_10
336,1,1
*CLOAD,AMPLITUDE=Ax_339_11
339,1,1
*CLOAD,AMPLITUDE=Ax_342_12
342,1,1
*CLOAD,AMPLITUDE=Ax_159_13
159,1,1
*CLOAD,AMPLITUDE=Ax_197_14
197,1,1
*CLOAD,AMPLITUDE=Ax_316_15
316,1,1
*CLOAD,AMPLITUDE=Ax_319_16
319,1,1
*CLOAD,AMPLITUDE=Ax_324_17
324,1,1
*NODE FILE,GLOBAL=YES
U,RF
*EL FILE
S,NOE
*END STEP
