*HEADING
B32 Timoshenko cantilever L=1000 RECT 10x20, tip -100 in Z
*NODE
1, 0, 0, 0
2, 250, 0, 0
3, 500, 0, 0
4, 750, 0, 0
5, 1000, 0, 0
6, 125, 0, 0
7, 375, 0, 0
8, 625, 0, 0
9, 875, 0, 0
*ELEMENT, TYPE=B32, ELSET=BEAM
1, 1, 2, 6
2, 2, 3, 7
3, 3, 4, 8
4, 4, 5, 9
*MATERIAL, NAME=STEEL
*ELASTIC
210000, 0.3
*BEAM SECTION, ELSET=BEAM, MATERIAL=STEEL, SECTION=RECT
10, 20
0, 1, 0
*BOUNDARY
1, 1, 6
*STEP
*STATIC
*CLOAD
5, 3, -100
*NODE FILE
U, RF
*EL FILE
S
*END STEP
