*HEADING
T3D2 SDOF free vibration. k=100, m=1, ω=10 rad/s
u(0)=0.01 → u(π/10)=-0.01
*NODE
1, 0, 0, 0
2, 1, 0, 0
*ELEMENT, TYPE=T3D2, ELSET=T
1, 1, 2
*MATERIAL, NAME=STEEL
*ELASTIC
100, 0.0
*DENSITY
2.0
*SOLID SECTION, ELSET=T, MATERIAL=STEEL
1.0
*BOUNDARY
1, 1, 3
2, 2, 3
*INITIAL CONDITIONS, TYPE=DISPLACEMENT
2, 1, 0.01
*STEP
*DYNAMIC
0.005, 0.3141592653589793
*NODE FILE
U
*END STEP
