*HEADING
T3D2 axial eigenfrequency
*NODE
1, 0, 0, 0
2, 1, 0, 0
*ELEMENT, TYPE=T3D2, ELSET=T
1, 1, 2
*MATERIAL, NAME=STEEL
*ELASTIC
100, 0.0
*DENSITY
1.0
*SOLID SECTION, ELSET=T, MATERIAL=STEEL
1.0
*BOUNDARY
1, 1, 3
2, 2, 3
*STEP
*FREQUENCY
1
*NODE FILE
U
*END STEP
