*HEADING
1D conduction T3D2, T(0)=0, T(L)=100 → T(L/2)=50
*NODE
1, 0, 0, 0
2, 500, 0, 0
3, 1000, 0, 0
*ELEMENT, TYPE=T3D2, ELSET=T
1, 1, 2
2, 2, 3
*MATERIAL, NAME=STEEL
*ELASTIC
210000, 0.3
*CONDUCTIVITY
50
*SOLID SECTION, ELSET=T, MATERIAL=STEEL
1
*BOUNDARY
1, 11, 11, 0
3, 11, 11, 100
*STEP
*HEAT TRANSFER, STEADY STATE
*NODE FILE
NT, RF
*END STEP
