*MATERIAL, NAME=STEEL
*ELASTIC
210000, 0.3
