*HEADING
M3D4 membrane patch — ux=0.01, sxx=210 (ν=0)
*NODE
1, 0, 0, 0
2, 10, 0, 0
3, 10, 10, 0
4, 0, 10, 0
*ELEMENT, TYPE=M3D4, ELSET=M
1, 1, 2, 3, 4
*MATERIAL, NAME=STEEL
*ELASTIC
210000, 0.0
*MEMBRANE SECTION, ELSET=M, MATERIAL=STEEL
1.0
*BOUNDARY
1, 1, 1
4, 1, 1
1, 2, 2
2, 2, 2
1, 3, 3
2, 3, 3
3, 3, 3
4, 3, 3
2, 1, 1, 0.01
3, 1, 1, 0.01
*STEP
*STATIC
*NODE FILE
U
*EL FILE
S
*END STEP
