ID AXIA ROD
SOL 101
CEND
TITLE = axial CROD, ux = FL/EA
SPC = 1
LOAD = 1
DISP = ALL
BEGIN BULK
$ L=10, A=2, E=210000, F=1000 → ux(2)=0.02380952
GRID,1,,0.,0.,0.
GRID,2,,10.,0.,0.
CROD,1,1,1,2
PROD,1,1,2.
MAT1,1,210000.,,0.3
SPC1,1,123456,1
FORCE,1,2,,1000.,1.,0.,0.
ENDDATA
