*HEADING
C3D6 uniaxial patch — uz = 0.01
*NODE
1, 0, 0, 0
2, 10, 0, 0
3, 0, 10, 0
4, 0, 0, 10
5, 10, 0, 10
6, 0, 10, 10
*ELEMENT, TYPE=C3D6, ELSET=S
1, 1, 2, 3, 4, 5, 6
*MATERIAL, NAME=STEEL
*ELASTIC
210000, 0.3
*SOLID SECTION, ELSET=S, MATERIAL=STEEL
*BOUNDARY
1, 3, 3
2, 3, 3
3, 3, 3
1, 1, 2
2, 2, 2
*STEP
*STATIC
*CLOAD
4, 3, 3500
5, 3, 3500
6, 3, 3500
*NODE FILE
U, RF
*EL FILE
S
*END STEP
