*HEADING
C3D15 confined uniaxial strain — εz=0.001
** σz = E(1-ν)/((1+ν)(1-2ν)) εz ≈ 282.69
*NODE
1, 0, 0, 0
2, 10, 0, 0
3, 0, 10, 0
4, 0, 0, 10
5, 10, 0, 10
6, 0, 10, 10
7, 5, 0, 0
8, 5, 5, 0
9, 0, 5, 0
10, 5, 0, 10
11, 5, 5, 10
12, 0, 5, 10
13, 0, 0, 5
14, 10, 0, 5
15, 0, 10, 5
*ELEMENT, TYPE=C3D15, ELSET=S
1, 1, 2, 3, 4, 5, 6, 7, 8, 9, 10, 11, 12, 13, 14, 15
*MATERIAL, NAME=STEEL
*ELASTIC
210000, 0.3
*SOLID SECTION, ELSET=S, MATERIAL=STEEL
*BOUNDARY
1, 1, 2
2, 1, 2
3, 1, 2
4, 1, 2
5, 1, 2
6, 1, 2
7, 1, 2
8, 1, 2
9, 1, 2
10, 1, 2
11, 1, 2
12, 1, 2
13, 1, 2
14, 1, 2
15, 1, 2
1, 3, 3, 0.0
2, 3, 3, 0.0
3, 3, 3, 0.0
7, 3, 3, 0.0
8, 3, 3, 0.0
** ... 10 like lines cut
*STEP
*STATIC
*NODE FILE
U
*EL FILE
S
*END STEP
