*HEADING
Constrained T3D2, ΔT=100, α=1e-5 → N = EA α ΔT = 42000
*NODE
1, 0, 0, 0
2, 1000, 0, 0
*ELEMENT, TYPE=T3D2, ELSET=T
1, 1, 2
*MATERIAL, NAME=STEEL
*ELASTIC
210000, 0.3
*EXPANSION
1e-5
*SOLID SECTION, ELSET=T, MATERIAL=STEEL
200
*BOUNDARY
1, 1, 3
2, 1, 3
*TEMPERATURE
1, 100
2, 100
*STEP
*STATIC
*NODE FILE
U, RF
*END STEP
