*HEADING
*TIE of two T3D2 bars
*NODE
1, 0, 0, 0
2, 500, 0, 0
3, 500, 0, 0
4, 1000, 0, 0
*ELEMENT, TYPE=T3D2, ELSET=T
1, 1, 2
2, 3, 4
*MATERIAL, NAME=STEEL
*ELASTIC
210000, 0.3
*SOLID SECTION, ELSET=T, MATERIAL=STEEL
200
*SURFACE, NAME=SL, TYPE=NODE
2
*SURFACE, NAME=MA, TYPE=NODE
3
*TIE
SL, MA
*BOUNDARY
1, 1, 3
2, 2, 3
3, 2, 3
4, 2, 3
*STEP
*STATIC
*CLOAD
4, 1, 21000
*NODE FILE
U
*END STEP
